*SPEF "1481-1998"
*DESIGN "pow4"
*DATE "Tue Apr  7 09:48:07 2026"
*VENDOR "Synopsys, Inc."
*PROGRAM "icc2 /home/synopsys_install/icc2/W-2024.09/linux64/nwtn/bin/icc2_exec"
*VERSION "W-2024.09 Aug 25, 2024"
*DESIGN_FLOW "ICC2 SPEF DR"
*DIVIDER /
*DELIMITER :
*BUS_DELIMITER [ ]
*T_UNIT 1 NS
*C_UNIT 1 FF
*R_UNIT 1 OHM
*L_UNIT 1 HENRY

// XY_UNIT 1 UM
// PARASITIC_TECH p2 at 125.000 degree

*NAME_MAP
*1 clk
*2 X[1]
*3 X[0]
*4 Y[6]
*5 Y[5]
*6 Y[4]
*7 Y[3]
*8 Y[2]
*9 Y[1]
*10 Y[0]
*11 VDD
*12 VSS
*13 X_reg_reg[1]
*14 X_reg_reg[0]
*15 Y_reg[6]
*16 Y_reg[4]
*17 Y_reg[2]
*18 Y_reg[0]
*19 U11
*20 U12
*21 U13
*22 U14
*23 U15
*24 U16
*25 \*Logic0\*
*26 N0
*27 N2
*28 N4
*29 N6
*30 n4
*31 n5
*32 n6
*33 X_reg[1]
*34 X_reg[0]

*PORTS

*1 I *C 2.628 9.217
*2 I *C 1.108 0.143
*3 I *C 0.804 0.143
*4 O *C 6.732 0.143
*5 O *C 3.692 0.143
*6 O *C 4.148 0.143
*7 O *C 4.300 0.143
*8 O *C 7.340 0.143
*9 O *C 3.996 0.143
*10 O *C 7.036 0.143
*11 I *C 5.972 4.680
*12 I *C 5.972 4.680

*D_NET *1 1.262542 //LENGTH 19.881 LUMPCC 0 DR

*CONN
*P *1 I *L 0 *C 2.628 9.102
*I *16:CLK I *L 0.714381 *C 1.108 7.340
*I *14:CLK I *L 0.714381 *C 1.215 3.996
*I *17:CLK I *L 0.714381 *C 3.388 3.692
*I *13:CLK I *L 0.714381 *C 1.108 0.652
*I *18:CLK I *L 0.714381 *C 5.060 0.652
*I *15:CLK I *L 0.714381 *C 4.148 7.036
*N *1:7 *C 4.148 7.024
*N *1:8 *C 4.148 6.884
*N *1:9 *C 4.135 6.884
*N *1:10 *C 5.060 0.652
*N *1:11 *C 5.060 0.792
*N *1:12 *C 5.046 0.804
*N *1:13 *C 1.108 0.652
*N *1:14 *C 1.108 0.792
*N *1:15 *C 1.122 0.804
*N *1:16 *C 3.236 0.804
*N *1:17 *C 3.236 0.818
*N *1:18 *C 3.388 3.679
*N *1:19 *C 3.388 3.540
*N *1:20 *C 3.376 3.540
*N *1:21 *C 3.236 3.540
*N *1:22 *C 3.236 3.540
*N *1:23 *C 1.260 3.996
*N *1:24 *C 1.260 3.996
*N *1:25 *C 1.260 4.136
*N *1:26 *C 1.274 4.148
*N *1:27 *C 3.223 4.148
*N *1:28 *C 3.236 4.148
*N *1:29 *C 3.236 6.871
*N *1:30 *C 3.236 6.884
*N *1:31 *C 3.236 7.188
*N *1:32 *C 1.108 7.328
*N *1:33 *C 1.108 7.188
*N *1:34 *C 1.122 7.188
*N *1:35 *C 2.628 7.188
*N *1:36 *C 2.628 7.202

*CAP
0 *1 0.06939657
1 *16:CLK 0.001
2 *14:CLK 0.008892294
3 *17:CLK 0.001
4 *13:CLK 0.001
5 *18:CLK 0.001
6 *15:CLK 0.001
7 *1:7 0.006945685
8 *1:8 0.008089215
9 *1:9 0.03474775
10 *1:10 0.00660596
11 *1:11 0.007749491
12 *1:12 0.05906279
13 *1:13 0.007284686
14 *1:14 0.008428217
15 *1:15 0.06558704
16 *1:16 0.126429
17 *1:17 0.08366068
18 *1:18 0.007066702
19 *1:19 0.008210233
20 *1:20 0.007431918
21 *1:21 0.007432019
22 *1:22 0.1033675
23 *1:23 0.007298167
24 *1:24 0.00824716
25 *1:25 0.008062253
26 *1:26 0.06893525
27 *1:27 0.06893536
28 *1:28 0.1089674
29 *1:29 0.08926059
30 *1:30 0.04543781
31 *1:31 0.03117126
32 *1:32 0.007559272
33 *1:33 0.008702803
34 *1:34 0.04523895
35 *1:35 0.06572025
36 *1:36 0.06761754

*RES
0 *1 *1:36 3.39375
1 *1:8 *1:7 0.2325
2 *1:9 *1:8 0.5
3 *1:7 *15:CLK 1
4 *1:11 *1:10 0.2325
5 *1:12 *1:11 0.5
6 *1:10 *18:CLK 1
7 *1:30 *1:29 0.5
8 *1:30 *1:9 1.604464
9 *1:29 *1:28 4.861608
10 *1:16 *1:15 3.775893
11 *1:16 *1:12 3.233036
12 *1:17 *1:16 0.5
13 *1:21 *1:20 0.2325
14 *1:22 *1:21 0.5
15 *1:22 *1:17 4.861607
16 *1:19 *1:18 0.2325
17 *1:20 *1:19 0.5
18 *1:18 *17:CLK 1
19 *1:36 *1:35 0.5
20 *1:35 *1:34 2.690179
21 *1:35 *1:31 1.085714
22 *1:27 *1:26 3.480357
23 *1:28 *1:27 0.5
24 *1:28 *1:22 1.085714
25 *1:25 *1:24 0.2325
26 *1:26 *1:25 0.5
27 *1:23 *14:CLK 0.09166667
28 *1:24 *1:23 1
29 *1:33 *1:32 0.2325
30 *1:34 *1:33 0.5
31 *1:32 *16:CLK 1
32 *1:14 *1:13 0.2325
33 *1:15 *1:14 0.5
34 *1:13 *13:CLK 1
35 *1:31 *1:30 0.5428572

*END

*D_NET *2 0.2048575 //LENGTH 2.525 LUMPCC 0 DR

*CONN
*P *2 I *L 0 *C 1.108 0.196
*I *13:D I *L 0.558146 *C 0.774 1.564
*N *2:2 *C 0.515 1.564
*N *2:3 *C 0.500 1.550
*N *2:4 *C 0.500 0.210
*N *2:5 *C 0.514 0.196
*N *2:6 *C 1.095 0.196

*CAP
0 *2 0.001
1 *13:D 0.01765101
2 *2:2 0.01605689
3 *2:3 0.06500629
4 *2:4 0.06482138
5 *2:5 0.02015295
6 *2:6 0.020169

*RES
0 *2 *2:6 0.5
1 *2:2 *13:D 0.5180001
2 *2:3 *2:2 1
3 *2:4 *2:3 2.394643
4 *2:5 *2:4 0.5
5 *2:6 *2:5 1.0375

*END

*D_NET *3 0.4413028 //LENGTH 5.233 LUMPCC 0 DR

*CONN
*P *3 I *L 0 *C 0.804 0.258
*I *14:D I *L 0.558146 *C 0.804 4.908
*N *3:2 *C 0.804 4.894
*N *3:3 *C 0.804 4.452
*N *3:4 *C 0.652 4.452
*N *3:5 *C 0.652 0.804
*N *3:6 *C 0.804 0.804

*CAP
0 *3 0.03070859
1 *14:D 0.001
2 *3:2 0.02072252
3 *3:3 0.03064829
4 *3:4 0.1603843
5 *3:5 0.1602558
6 *3:6 0.03758331

*RES
0 *3 *3:6 0.975
1 *3:2 *14:D 1
2 *3:5 *3:4 6.514286
3 *3:4 *3:3 0.2714286
4 *3:6 *3:5 0.2714286
5 *3:3 *3:2 0.7901786

*END

*D_NET *4 0.5873559 //LENGTH 7.053 LUMPCC 0 DR

*CONN
*I *15:Q O *L 0 *C 7.188 6.580
*P *4 O *L 0 *C 6.732 0.258
*N *4:2 *C 6.732 5.958
*N *4:3 *C 6.746 5.972
*N *4:4 *C 7.175 5.972
*N *4:5 *C 7.188 5.986
*N *4:6 *C 7.188 6.567

*CAP
0 *15:Q 0.001
1 *4 0.2571879
2 *4:2 0.2554089
3 *4:3 0.01534596
4 *4:4 0.01534596
5 *4:5 0.02210533
6 *4:6 0.02096179

*RES
0 *15:Q *4:6 1
1 *4:6 *4:5 1.0375
2 *4:5 *4:4 0.5
3 *4:4 *4:3 0.7660715
4 *4:2 *4 10.17946
5 *4:3 *4:2 0.5

*END

*D_NET *6 0.4885326 //LENGTH 8.077 LUMPCC 0 DR

*CONN
*I *16:Q O *L 0 *C 4.148 7.796
*P *6 O *L 0 *C 4.148 0.258
*N *6:2 *C 4.148 7.614
*N *6:3 *C 3.966 7.796
*N *6:4 *C 4.148 7.783
*N *6:5 *C 4.136 7.796
*N *6:6 *C 4.148 7.784

*CAP
0 *16:Q 0.001
1 *6 0.2296168
2 *6:2 0.01026206
3 *6:3 0.008906716
4 *6:4 0.2278378
5 *6:5 0.005348749
6 *6:6 0.005560458

*RES
0 *16:Q *6:6 1
1 *6:6 *6:5 0.5
2 *6:6 *6:2 0.2825
3 *6:5 *6:4 0.5
4 *6:5 *6:3 0.2825
5 *6:4 *6 13.43661

*END

*D_NET *8 0.3008052 //LENGTH 4.165 LUMPCC 0 DR

*CONN
*I *17:Q O *L 0 *C 6.428 3.236
*P *8 O *L 0 *C 7.340 0.258
*N *8:2 *C 7.340 1.399
*N *8:3 *C 7.327 1.412
*N *8:4 *C 6.442 1.412
*N *8:5 *C 6.428 1.425
*N *8:6 *C 6.428 3.223

*CAP
0 *17:Q 0.001
1 *8 0.04722617
2 *8:2 0.04544714
3 *8:3 0.02818477
4 *8:4 0.02818477
5 *8:5 0.07595295
6 *8:6 0.07480942

*RES
0 *17:Q *8:6 1
1 *8:6 *8:5 3.208929
2 *8:5 *8:4 0.5
3 *8:4 *8:3 1.580357
4 *8:2 *8 2.036607
5 *8:3 *8:2 0.5

*END

*D_NET *10 0.1381167 //LENGTH 2.189 LUMPCC 0 DR

*CONN
*I *18:Q O *L 0 *C 8.100 1.108
*P *10 O *L 0 *C 7.036 0.258
*N *10:2 *C 7.036 0.487
*N *10:3 *C 7.050 0.500
*N *10:4 *C 8.087 0.500
*N *10:5 *C 8.100 0.514
*N *10:6 *C 8.100 1.095

*CAP
0 *18:Q 0.001
1 *10 0.01556461
2 *10:2 0.01378557
3 *10:3 0.03167486
4 *10:4 0.03167486
5 *10:5 0.02278017
6 *10:6 0.02163663

*RES
0 *18:Q *10:6 1
1 *10:6 *10:5 1.0375
2 *10:5 *10:4 0.5
3 *10:4 *10:3 1.851786
4 *10:2 *10 0.4080357
5 *10:3 *10:2 0.5

*END

*D_NET *26 0.5917898 //LENGTH 7.583 LUMPCC 0 DR

*CONN
*I *24:Y O *L 0 *C 5.334 8.425
*I *18:D I *L 0.558146 *C 4.756 1.564
*N *26:2 *C 4.756 1.578
*N *26:3 *C 4.756 8.391
*N *26:4 *C 4.771 8.404

*CAP
0 *24:Y 0.03534833
1 *18:D 0.001
2 *26:2 0.2601794
3 *26:3 0.2615079
4 *26:4 0.03375421

*RES
0 *24:Y *26:4 1.126
1 *26:2 *18:D 1
2 *26:4 *26:3 1
3 *26:3 *26:2 12.16607

*END

*D_NET *27 0.2741628 //LENGTH 4.444 LUMPCC 0 DR

*CONN
*I *20:Y O *L 0 *C 6.884 2.780
*I *17:D I *L 0.558146 *C 3.084 2.780
*N *27:2 *C 3.084 2.768
*N *27:3 *C 3.084 2.628
*N *27:4 *C 3.098 2.628
*N *27:5 *C 6.871 2.628
*N *27:6 *C 6.884 2.628
*N *27:7 *C 6.884 2.768

*CAP
0 *20:Y 0.001
1 *17:D 0.001
2 *27:2 0.006120896
3 *27:3 0.007264428
4 *27:4 0.1164791
5 *27:5 0.1164791
6 *27:6 0.01348139
7 *27:7 0.01233786

*RES
0 *20:Y *27:7 1
1 *27:2 *17:D 1
2 *27:3 *27:2 0.2325
3 *27:4 *27:3 0.5
4 *27:6 *27:5 0.5
5 *27:5 *27:4 6.7375
6 *27:7 *27:6 0.2325

*END

*D_NET *28 0.2456034 //LENGTH 3.327 LUMPCC 0 DR

*CONN
*I *23:Y O *L 0 *C 1.686 5.977
*I *16:D I *L 0.558146 *C 0.804 8.252
*N *28:2 *C 0.804 8.239
*N *28:3 *C 0.804 5.986
*N *28:4 *C 0.819 5.972

*CAP
0 *23:Y 0.04506832
1 *16:D 0.001
2 *28:2 0.07736624
3 *28:3 0.07869468
4 *28:4 0.04347419

*RES
0 *23:Y *28:4 1.734
1 *28:2 *16:D 1
2 *28:4 *28:3 1
3 *28:3 *28:2 4.023215

*END

*D_NET *29 0.1752332 //LENGTH 2.281 LUMPCC 0 DR

*CONN
*I *22:Y O *L 0 *C 4.574 4.931
*I *15:D I *L 0.558146 *C 3.844 6.124
*N *29:2 *C 3.844 6.111
*N *29:3 *C 3.844 5.682
*N *29:4 *C 3.858 5.668
*N *29:5 *C 4.439 5.668
*N *29:6 *C 4.452 5.655
*N *29:7 *C 4.452 4.909
*N *29:8 *C 4.452 4.908

*CAP
0 *22:Y 0.01024171
1 *15:D 0.001
2 *29:2 0.01726029
3 *29:3 0.01840382
4 *29:4 0.02273087
5 *29:5 0.02273087
6 *29:6 0.03287538
7 *29:7 0.03306029
8 *29:8 0.01692993

*RES
0 *22:Y *29:8 0.244
1 *29:2 *15:D 1
2 *29:3 *29:2 0.7660714
3 *29:4 *29:3 0.5
4 *29:6 *29:5 0.5
5 *29:5 *29:4 1.0375
6 *29:8 *29:7 1
7 *29:7 *29:6 1.33125

*END

*D_NET *30 0.1618624 //LENGTH 2.155 LUMPCC 0 DR

*CONN
*I *19:Y O *L 0 *C 6.902 4.604
*I *20:A I *L 0.604022 *C 7.188 2.932
*N *30:2 *C 7.187 2.932
*N *30:3 *C 7.036 2.932
*N *30:4 *C 7.036 4.591
*N *30:5 *C 7.024 4.604

*CAP
0 *19:Y 0.008986636
1 *20:A 0.001
2 *30:2 0.003712128
3 *30:3 0.07449999
4 *30:4 0.06627117
5 *30:5 0.007392509

*RES
0 *19:Y *30:5 0.2033333
1 *30:2 *20:A 1
2 *30:5 *30:4 1
3 *30:4 *30:3 2.961607
4 *30:3 *30:2 0.2696429

*END

*D_NET *31 0.1175812 //LENGTH 0.942 LUMPCC 0 DR

*CONN
*I *21:Y O *L 0 *C 5.628 4.604
*I *22:A I *L 0.604022 *C 4.938 4.756
*N *31:2 *C 5.364 4.756
*N *31:3 *C 5.364 4.604

*CAP
0 *21:Y 0.02051619
1 *22:A 0.02843807
2 *31:2 0.03827438
3 *31:3 0.0303525

*RES
0 *21:Y *31:3 0.5279999
1 *31:2 *22:A 0.852
2 *31:3 *31:2 0.304

*END

*D_NET *32 0.831161 //LENGTH 10.013 LUMPCC 0 DR

*CONN
*I *13:QN O *L 0 *C 4.313 0.969
*I *23:A2 I *L 0.708348 *C 2.478 6.124
*I *19:A2 I *L 0.483357 *C 6.580 4.756
*N *32:3 *C 6.580 4.624
*N *32:4 *C 6.580 4.744
*N *32:5 *C 6.567 4.756
*N *32:6 *C 2.476 6.098
*N *32:7 *C 2.476 4.769
*N *32:8 *C 2.490 4.756
*N *32:9 *C 4.452 4.756
*N *32:10 *C 4.452 4.743
*N *32:11 *C 4.452 0.970
*N *32:12 *C 4.439 0.956

*CAP
0 *13:QN 0.01199961
1 *23:A2 0.001
2 *19:A2 0.001
3 *32:3 0.01350147
4 *32:4 0.007450183
5 *32:5 0.08096065
6 *32:6 0.04845066
7 *32:7 0.05025841
8 *32:8 0.06883316
9 *32:9 0.1530554
10 *32:10 0.1920305
11 *32:11 0.1922154
12 *32:12 0.01040548

*RES
0 *13:QN *32:12 0.2108333
1 *32:4 *19:A2 1
2 *32:4 *32:3 0.1991667
3 *32:5 *32:4 0.5
4 *32:10 *32:9 0.5
5 *32:9 *32:8 3.504465
6 *32:9 *32:5 3.775893
7 *32:12 *32:11 1
8 *32:11 *32:10 6.7375
9 *32:7 *32:6 2.372321
10 *32:8 *32:7 0.5
11 *32:6 *23:A2 0.5

*END

*D_NET *33 0.8685648 //LENGTH 10.287 LUMPCC 0 DR

*CONN
*I *13:Q O *L 0 *C 4.148 1.108
*I *21:A1 I *L 0.564384 *C 5.820 4.452
*I *24:A1 I *L 0.610165 *C 6.429 8.100
*N *33:3 *C 6.490 8.100
*N *33:4 *C 6.490 8.100
*N *33:5 *C 6.428 5.378
*N *33:6 *C 6.415 5.364
*N *33:7 *C 5.986 5.364
*N *33:8 *C 5.972 5.351
*N *33:9 *C 5.833 4.452
*N *33:10 *C 5.972 4.452
*N *33:11 *C 5.972 4.162
*N *33:12 *C 5.958 4.148
*N *33:13 *C 4.162 4.148
*N *33:14 *C 4.148 4.135
*N *33:15 *C 4.148 1.122

*CAP
0 *13:Q 0.001
1 *21:A1 0.001
2 *24:A1 0.01112523
3 *33:3 0.006342848
4 *33:4 0.1223253
5 *33:5 0.1162794
6 *33:6 0.01710262
7 *33:7 0.01710262
8 *33:8 0.04568775
9 *33:9 0.005550155
10 *33:10 0.0713865
11 *33:11 0.01366797
12 *33:12 0.07335154
13 *33:13 0.07335154
14 *33:14 0.1472174
15 *33:15 0.1460739

*RES
0 *13:Q *33:15 1
1 *33:8 *33:7 0.5
2 *33:7 *33:6 0.7660714
3 *33:5 *33:4 4.861607
4 *33:6 *33:5 0.5
5 *33:3 *24:A1 0.1916667
6 *33:4 *33:3 0.5
7 *33:9 *21:A1 1
8 *33:11 *33:10 0.5187501
9 *33:12 *33:11 0.5
10 *33:14 *33:13 0.5
11 *33:13 *33:12 3.208929
12 *33:15 *33:14 5.380358
13 *33:10 *33:9 0.2473214
14 *33:10 *33:8 1.604464

*END

*D_NET *34 0.8915846 //LENGTH 11.169 LUMPCC 0 DR

*CONN
*I *14:Q O *L 0 *C 4.148 4.452
*I *21:A2 I *L 0.483357 *C 5.970 4.784
*I *23:A1 I *L 0.610165 *C 2.781 6.276
*I *24:A2 I *L 0.708348 *C 6.126 8.252
*I *19:A1 I *L 0.564384 *C 6.730 4.479
*N *34:5 *C 4.148 4.634
*N *34:6 *C 6.580 4.270
*N *34:7 *C 6.593 4.452
*N *34:8 *C 6.580 4.439
*N *34:9 *C 6.567 4.452
*N *34:10 *C 6.124 8.226
*N *34:11 *C 2.842 6.276
*N *34:12 *C 2.842 6.276
*N *34:13 *C 2.780 6.276
*N *34:14 *C 2.794 6.276
*N *34:15 *C 6.111 6.276
*N *34:16 *C 6.124 6.276
*N *34:17 *C 6.112 4.756
*N *34:18 *C 6.124 4.756
*N *34:19 *C 6.124 4.466
*N *34:20 *C 6.124 4.452
*N *34:21 *C 4.162 4.452
*N *34:22 *C 4.148 4.465

*CAP
0 *14:Q 0.001
1 *21:A2 0.01193792
2 *23:A1 0.01402442
3 *24:A2 0.001
4 *19:A1 0.014241
5 *34:5 0.0119554
6 *34:6 0.01637877
7 *34:7 0.01264687
8 *34:8 0.01300561
9 *34:9 0.019384
10 *34:10 0.07536379
11 *34:11 0.009242044
12 *34:12 0.008546207
13 *34:13 0.001
14 *34:14 0.110513
15 *34:15 0.110513
16 *34:16 0.1491653
17 *34:17 0.01034379
18 *34:18 0.08727165
19 *34:19 0.01509301
20 *34:20 0.1064341
21 *34:21 0.08527109
22 *34:22 0.007253799

*RES
0 *14:Q *34:22 1
1 *34:8 *34:7 1
2 *34:8 *34:6 0.2825
3 *34:9 *34:8 0.5
4 *34:7 *19:A1 0.2283333
5 *34:10 *24:A2 0.5
6 *34:19 *34:18 0.5187501
7 *34:20 *34:19 0.5
8 *34:20 *34:9 0.7901786
9 *34:17 *21:A2 0.2366667
10 *34:18 *34:17 1
11 *34:18 *34:16 2.714286
12 *34:22 *34:21 0.5
13 *34:22 *34:5 0.2825
14 *34:21 *34:20 3.504464
15 *34:16 *34:15 0.5
16 *34:16 *34:10 3.482143
17 *34:15 *34:14 5.923214
18 *34:13 *34:12 0.05636364
19 *34:14 *34:13 0.5
20 *34:11 *23:A1 0.1916667
21 *34:12 *34:11 0.5

*END

